sol/case89pegase.m
function mpc = case89pegase
%CASE89PEGASE

%% MATPOWER Case Format : Version 2
mpc.version = '2';

%%-----  Power Flow Data  -----%%
%% system MVA base
mpc.baseMVA = 100;

%% bus data
%	bus_i	type	Pd	Qd	Gs	Bs	area	Vm	Va	baseKV	zone	Vmax	Vmin	lam_P	lam_Q	mu_Vmax	mu_Vmin
mpc.bus = [
	89	1	0	0	0.199111	4.530599	0	1.00744886	-3.70209055	380	2	1.1	0.9	1.0129	0.0021	0.0000	0.0000;
	228	1	-23.43	57.4	0	0	0	1.06414562	-6.09417135	150	2	1.1	0.9	0.9997	-0.0016	0.0000	0.0000;
	271	1	96.7	26.8	0	0	0	1.04820322	-8.01479612	150	2	1.1	0.9	1.0105	0.0030	0.0000	0.0000;
	317	1	-0	-0	0.045946	-1.82203	0	1.05652772	-0.69773774	380	2	1.1	0.9	1.0001	-0.0007	0.0000	0.0000;
	659	1	-0	-0	0.174507	73.977052	0	1.0581786	-0.720911604	380	2	1.1	0.9	1.0002	0.0004	0.0000	0.0000;
	792	1	295.3	41.9	0	0	0	1.04806938	-7.06161041	150	2	1.1	0.9	1.0041	0.0011	0.0000	0.0000;
	913	3	0	0	0	0	0	1.03366362	0	380	2	1.1	0.9	1.0000	0.0000	0.0000	0.0000;
	955	1	244.2	152.7	0	0	0	1.00942427	-10.1197955	150	2	1.1	0.9	1.0261	0.0194	0.0000	0.0000;
	1037	1	-0	0	0	0.55	0	1.06059583	-1.78652705	380	2	1.1	0.9	1.0041	-0.0008	0.0000	0.0000;
	1163	1	-0	-0	0	16.04	0	1.02340449	-3.31238388	380	2	1.1	0.9	1.0076	0.0016	0.0000	0.0000;
	1317	1	149.3	-2	0	20.77	0	1.04792221	-1.45715296	380	2	1.1	0.9	1.0023	0.0001	0.0000	0.0000;
	1367	1	0	-0	0.175687	-1.509401	0	1.03248043	-1.73078615	380	2	1.1	0.9	1.0029	0.0000	0.0000	0.0000;
	1445	1	238.4	210.9	0	0	0	1.04830807	-5.7358038	220	2	1.1	0.9	1.0013	0.0070	0.0000	0.0000;
	1531	1	-0	0	0	0	0	1.0369547	-9.45446994	150	2	1.1	0.9	1.0163	-0.0024	0.0000	0.0000;
	1579	1	-0	0	0	16.56	0	1.01873925	-3.56061237	380	2	1.1	0.9	1.0112	-0.0007	0.0000	0.0000;
	1611	1	274.1	166.5	0	0.56	0	1.05393213	-7.31151711	150	2	1.1	0.9	1.0054	0.0026	0.0000	0.0000;
	1616	1	0	0	0	14.45	0	1.01347665	-3.05334135	380	2	1.1	0.9	1.0103	0.0020	0.0000	0.0000;
	1676	1	-0	0	0.171586	-1.4632	0	1.02308724	-3.33636338	380	2	1.1	0.9	1.0076	0.0016	0.0000	0.0000;
	1815	1	63.66	9.7	0	0	0	1.06685122	-6.01041698	220	2	1.1	0.9	1.0036	-0.0007	0.0000	0.0000;
	1968	1	118.4	137	0	0	0	1.03123457	-10.3751518	150	2	1.1	0.9	1.0262	0.0168	0.0000	0.0000;
	2107	2	0	0	0	0	0	1.03921664	0.41900924	380	2	1.1	0.9	1.0000	0.0006	0.0000	0.0000;
	2154	1	-357.45	33.05	0.29	-5.6	0	1.03476222	2.42223145	380	2	1.1	0.9	0.9986	0.0007	0.0000	0.0000;
	2168	1	8.6	-1.48	0	0	0	1.02437351	-12.1867432	150	2	1.1	0.9	1.0408	0.0175	0.0000	0.0000;
	2267	2	0	0	0	0	0	1.05216819	3.87682287	380	2	1.1	0.9	0.9881	0.0238	0.0000	0.0000;
	2268	1	0	-0	0.183167	22.675025	0	0.999137992	-4.04670779	380	2	1.1	0.9	1.0156	0.0073	0.0000	0.0000;
	2299	1	402.1	110.2	0	0	0	1.05343811	-8.83801014	150	2	1.1	0.9	1.0132	-0.0017	0.0000	0.0000;
	2441	1	0	-0	0.242534	1.143584	0	0.995399972	-4.09902149	380	2	1.1	0.9	1.0198	0.0117	0.0000	0.0000;
	2449	1	301.9	-103.2	0	0	0	1.09999999	-8.44917728	150	2	1.1	0.9	0.9972	-0.0823	386.8970	0.0000;
	2520	1	-0	-0	0.057433	3.80797	0	1.00835509	-3.77122171	380	2	1.1	0.9	1.0134	0.0018	0.0000	0.0000;
	2870	1	-0	0	0	0.62	0	1.06059585	-1.78652866	380	2	1.1	0.9	1.0041	-0.0008	0.0000	0.0000;
	2908	1	203.8	61	0	0.6	0	1.02985517	-9.21962153	150	2	1.1	0.9	1.0208	0.0108	0.0000	0.0000;
	3097	1	361.91	3.66	0	9.39	0	1.05580359	-2.40339396	380	2	1.1	0.9	1.0050	0.0005	0.0000	0.0000;
	3242	1	296.1	82.3	0	0	0	1.06267084	-7.21762825	150	2	1.1	0.9	1.0035	-0.0000	0.0000	0.0000;
	3279	1	0	0	0	0	0	1.04813915	-7.03212902	150	2	1.1	0.9	1.0041	0.0011	0.0000	0.0000;
	3493	1	226.3	61.1	0	0	0	1.05258285	-8.13152071	150	2	1.1	0.9	1.0278	0.0005	0.0000	0.0000;
	3506	1	0	0	0	0.6	0	1.0096544	-10.0852216	150	2	1.1	0.9	1.0261	0.0193	0.0000	0.0000;
	3659	2	0	0	0	0	0	1.04313269	1.00853212	380	2	1.1	0.9	0.9983	0.0000	0.0000	0.0000;
	4014	1	0	0	0	0	0	1.05929493	-7.36331006	150	2	1.1	0.9	1.0052	-0.0025	0.0000	0.0000;
	4423	1	-0	-0	0	0.33	0	1.05345996	-8.81783723	150	2	1.1	0.9	1.0131	-0.0017	0.0000	0.0000;
	4427	1	296.8	77.7	0	0	0	1.04689209	-9.17530667	150	2	1.1	0.9	1.0191	0.0018	0.0000	0.0000;
	4495	1	336.3	104.4	0	0	0	1.04956344	-9.3824384	150	2	1.1	0.9	1.0221	-0.0044	0.0000	0.0000;
	4586	2	0	0	0	0	0	1.06078419	-7.00406888	150	2	1.1	0.9	1.0000	-0.0031	0.0000	0.0000;
	4665	1	390.5	62.5	0	0	0	1.05074082	-9.8487279	150	2	1.1	0.9	1.0211	-0.0052	0.0000	0.0000;
	4929	1	37	8.7	0.070441	50.913893	0	1.06059315	-1.78651445	380	2	1.1	0.9	1.0041	-0.0008	0.0000	0.0000;
	5097	2	0	0	0	0	0	1.06261029	-7.2166311	150	2	1.1	0.9	1.0035	0.0000	0.0000	0.0000;
	5155	1	411.3	168	0	0	0	1.03997366	-9.15914256	150	2	1.1	0.9	1.0181	0.0051	0.0000	0.0000;
	5210	1	347.61	74.37	0	0	0	1.0488857	-5.37084405	220	2	1.1	0.9	0.9989	0.0101	0.0000	0.0000;
	5416	1	0	0	0	25.13	0	1.051119	4.22123171	380	2	1.1	0.9	0.9865	0.0251	0.0000	0.0000;
	5509	1	0	0	0.314057	17.296509	0	1.01068994	-4.41656554	380	2	1.1	0.9	1.0143	0.0005	0.0000	0.0000;
	5587	1	-0	-0	0	0.33	0	1.05269067	-8.0953767	150	2	1.1	0.9	0.9902	-0.0055	0.0000	0.0000;
	5762	1	0	0	0	2.23	0	1.03879923	0.688068477	380	2	1.1	0.9	0.9993	0.0007	0.0000	0.0000;
	5776	1	222.7	80.5	0	0	0	1.0851525	-8.56505546	150	2	1.1	0.9	1.0065	-0.0010	0.0000	0.0000;
	5848	1	0	-0	0.29	-0.42	0	1.02152586	-3.2161302	380	2	1.1	0.9	1.0099	-0.0012	0.0000	0.0000;
	5996	1	-0	-0	0.164188	4.023827	0	1.03875104	0.688298473	380	2	1.1	0.9	0.9993	0.0007	0.0000	0.0000;
	6069	1	-456.66	-131.97	0.285753	35.371068	0	0.982933435	-5.30456452	380	2	1.1	0.9	1.0240	0.0132	0.0000	0.0000;
	6233	2	0	0	0	0	0	1.05679352	-0.659686629	380	2	1.1	0.9	1.0000	-0.0003	0.0000	0.0000;
	6293	1	-0	0	0	33.66	0	0.99848905	-3.72575478	380	2	1.1	0.9	1.0184	0.0108	0.0000	0.0000;
	6542	1	355.98	-147.98	0	0	0	1.07921513	-8.40623033	220	2	1.1	0.9	1.0200	-0.0095	0.0000	0.0000;
	6704	1	-0	-0	0.211099	0.672832	0	1.015004	-3.18692148	380	2	1.1	0.9	1.0078	0.0014	0.0000	0.0000;
	6798	2	0	0	0	0	0	1.0610459	-0.599202665	380	2	1.1	0.9	0.9998	0.0000	0.0000	0.0000;
	6826	1	326.9	-82.3	0	0	0	1.08690889	-8.70265763	150	2	1.1	0.9	1.0061	-0.0023	0.0000	0.0000;
	6833	1	0	0	0.246363	4.841277	0	0.974200114	-6.03030771	380	2	1.1	0.9	1.0283	0.0151	0.0000	0.0000;
	7051	1	0	0	0	21.19	0	1.02786503	-3.12813859	380	2	1.1	0.9	1.0072	0.0016	0.0000	0.0000;
	7180	1	-0	0	0.234234	4.220723	0	0.976839364	-6.11924017	380	2	1.1	0.9	1.0280	0.0145	0.0000	0.0000;
	7279	2	0	0	0	0	0	1.05929493	-7.36331006	150	2	1.1	0.9	1.0052	-0.0025	0.0000	0.0000;
	7526	1	-179.73	-63.08	0	0	0	1.02745756	-2.45293238	380	2	1.1	0.9	1.0096	-0.0013	0.0000	0.0000;
	7563	1	531.7	-12.8	0	0	0	1.05410517	-10.0428835	150	2	1.1	0.9	1.0229	-0.0019	0.0000	0.0000;
	7637	1	0	0	0.29	6.18	0	1.04918336	10.2348834	380	2	1.1	0.9	-1.1394	0.4176	0.0000	0.0000;
	7762	1	-0	0	0.304243	48.453399	0	1.01710593	-2.34919253	380	2	1.1	0.9	1.0080	0.0021	0.0000	0.0000;
	7829	1	-114.36	30.04	0	0	0	1.07169342	-5.77552009	220	2	1.1	0.9	1.0037	-0.0011	0.0000	0.0000;
	7960	2	0	0	0	0	0	1.05993379	-0.657586756	380	2	1.1	0.9	1.0000	0.0001	0.0000	0.0000;
	8103	1	39.34	-10.7	0	0	0	1.01811464	-4.41448493	150	2	1.1	0.9	1.0086	0.0015	0.0000	0.0000;
	8179	1	-0	0	0.194464	19.1468	0	1.01134261	-3.5517635	380	2	1.1	0.9	1.0112	0.0017	0.0000	0.0000;
	8181	1	0	-0	0.210824	6.620599	0	1.01108577	-3.33052555	380	2	1.1	0.9	1.0109	0.0022	0.0000	0.0000;
	8229	1	0	0	0	0	0	1.0851525	-8.56505546	150	2	1.1	0.9	1.0065	-0.0010	0.0000	0.0000;
	8329	1	0	0	0.149712	2.04987	0	1.0524773	-1.19698666	380	2	1.1	0.9	1.0019	0.0019	0.0000	0.0000;
	8335	1	637.92	139.57	0	0	0	1.03694653	-9.4765428	150	2	1.1	0.9	1.0163	-0.0024	0.0000	0.0000;
	8420	1	-0	0	0	0	0	1.05422655	-7.2678302	150	2	1.1	0.9	1.0054	0.0026	0.0000	0.0000;
	8574	1	-0	0	0.447839	20.994738	0	1.01337673	-3.34446183	380	2	1.1	0.9	1.0095	0.0017	0.0000	0.0000;
	8581	1	-1299.13	-140.85	0	0	0	1.05348157	21.152598	380	2	1.1	0.9	-1.2935	0.4292	0.0000	0.0000;
	8605	2	0	0	0	0	0	1.03290667	-1.6706381	380	2	1.1	0.9	1.0027	0.0000	0.0000	0.0000;
	8847	1	-0	0	0.18076	-0.881251	0	1.02599914	-3.37419536	380	2	1.1	0.9	1.0078	0.0017	0.0000	0.0000;
	8921	1	0	0	0	16.37	0	1.01751037	-2.97767647	380	2	1.1	0.9	1.0077	0.0014	0.0000	0.0000;
	8964	1	925.91	147.97	0	0	0	1.02423999	-12.217987	150	2	1.1	0.9	1.0409	0.0175	0.0000	0.0000;
	9024	1	0	0	0.141019	25.246	0	1.06646334	-4.57677127	380	2	1.1	0.9	1.0149	-0.0051	0.0000	0.0000;
	9025	1	0	-0	0.205903	3.0768	0	1.01234138	-3.09852106	380	2	1.1	0.9	1.0113	0.0023	0.0000	0.0000;
	9064	1	0	-0	0	15.26	0	1.01334469	-3.09390645	380	2	1.1	0.9	1.0096	0.0019	0.0000	0.0000;
	9192	1	17.92	23.3	0	0	0	1.03221664	-10.1356736	150	2	1.1	0.9	1.0253	0.0165	0.0000	0.0000;
	9239	2	0	0	0	0	0	1.05998538	-0.655319944	380	2	1.1	0.9	1.0000	0.0001	0.0000	0.0000;
];

%% generator data
%	bus	Pg	Qg	Qmax	Qmin	Vg	mBase	status	Pmax	Pmin	Pc1	Pc2	Qc1min	Qc1max	Qc2min	Qc2max	ramp_agc	ramp_10	ramp_30	ramp_q	apf	mu_Pmax	mu_Pmin	mu_Qmax	mu_Qmin
mpc.gen = [
	913	1692.03549	527.633471	772.11	-269.94	1.03366362	100	1	1700	566.67	0	0	0	0	0	0	0	0	0	0	0	0.0000	0.0000	0.0000	0.0000;
	2107	1211.23464	661.895791	661.9	-257.62	1.03921664	100	1	1500	500	0	0	0	0	0	0	0	0	0	0	0	0.0000	0.0000	0.0000	0.0000;
	2267	166.670199	228.159901	228.16	-78.83	1.05216819	100	1	500	166.67	0	0	0	0	0	0	0	0	0	0	0	0.0000	0.0119	0.0238	0.0000;
	3659	666.671376	372.463347	943.64	-282.01	1.04313269	100	1	2000	666.67	0	0	0	0	0	0	0	0	0	0	0	0.0000	0.0017	0.0000	0.0000;
	4586	50.9561699	-29.8092347	92.96	-29.81	1.06078419	100	1	100	-727.6	0	0	0	0	0	0	0	0	0	0	0	0.0000	0.0000	0.0000	0.0031;
	5097	21.2293121	4.18671375	8.91	-4.11	1.06261029	100	1	21.23	7.08	0	0	0	0	0	0	0	0	0	0	0	0.0035	0.0000	0.0000	0.0000;
	6233	531.84029	-189.962035	545.68	-189.97	1.05679352	100	1	1200	400	0	0	0	0	0	0	0	0	0	0	0	0.0000	0.0000	0.0000	0.0000;
	6798	333.435489	355.881374	429.61	-183.48	1.0610459	100	1	1000	333.33	0	0	0	0	0	0	0	0	0	0	0	0.0000	0.0000	0.0000	0.0000;
	7279	99.9995324	-6.6390697	14.78	-6.64	1.05929493	100	1	100	-908.93	0	0	0	0	0	0	0	0	0	0	0	0.0052	0.0000	0.0000	0.0025;
	7960	222.877942	274.18236	274.2	-93.22	1.05993379	100	1	600	200	0	0	0	0	0	0	0	0	0	0	0	0.0000	0.0000	0.0000	0.0000;
	8605	599.9991	125.521114	273.94	-93.65	1.03290667	100	1	600	200	0	0	0	0	0	0	0	0	0	0	0	0.0027	0.0000	0.0000	0.0000;
	9239	222.856572	274.182377	274.2	-93.22	1.05998538	100	1	600	200	0	0	0	0	0	0	0	0	0	0	0	0.0000	0.0000	0.0000	0.0000;
];

%% branch data
%	fbus	tbus	r	x	b	rateA	rateB	rateC	ratio	angle	status	angmin	angmax	Pf	Qf	Pt	Qt	mu_Sf	mu_St	mu_angmin	mu_angmax
mpc.branch = [
	3097	659	0.00073	0.00905	0	1205	0	0	0	0	1	-360	360	-361.9100	6.8072	362.7680	3.8302	0.0000	0.0000	0.0000	0.0000;
	9024	4929	0.00192	0.02296	0	909	0	0	0	0	1	-360	360	-235.3984	52.7917	236.3809	-41.0428	0.0000	0.0000	0.0000	0.0000;
	1815	6542	0.01431	0.05899	0	0	0	0	0	0	1	-360	360	72.3236	-38.1989	-71.4825	41.6662	0.0000	0.0000	0.0000	0.0000;
	6542	1445	0.02607	0.07168	0	0	0	0	0	0	1	-360	360	-49.4475	66.2317	50.9766	-62.0273	0.0000	0.0000	0.0000	0.0000;
	6069	6833	0.00054	0.00465	0	1600	0	0	0	0	1	-360	360	278.7079	153.8939	-278.1413	-149.0155	0.0000	0.0000	0.0000	0.0000;
	6069	2268	0.00126	0.01124	0	1633	0	0	0	0	1	-360	360	-204.8785	-116.6359	205.6033	123.1018	0.0000	0.0000	0.0000	0.0000;
	6069	7180	0.00048	0.00527	0	1567	0	0	0	0	1	-360	360	267.3528	91.1543	-266.9564	-86.8022	0.0000	0.0000	0.0000	0.0000;
	6069	6293	0.00082	0.00938	0	1600	0	0	0	0	1	-360	360	-299.8926	-132.8191	300.8056	143.2632	0.0000	0.0000	0.0000	0.0000;
	1968	9192	0.00028	0.003502	0	0	0	0	0	0	1	-360	360	-128.5134	-18.3783	128.5578	18.9333	0.0000	0.0000	0.0000	0.0000;
	1968	3493	0.691467	4.414711	0	0	0	0	0	0	1	-360	360	-1.0129	-0.3212	1.0202	0.3681	0.0000	0.0000	0.0000	0.0000;
	1968	955	0.02004	0.0916	0	0	0	0	0	0	1	-360	360	0.2954	24.5007	-0.1823	-23.9836	0.0000	0.0000	0.0000	0.0000;
	1968	228	0.841911	4.768444	0	0	0	0	0	0	1	-360	360	-1.7768	-0.3338	1.8027	0.4804	0.0000	0.0000	0.0000	0.0000;
	1968	6826	0.026	0.08948	0	0	0	0	0	0	1	-360	360	-50.7627	-48.8796	51.9769	53.0581	0.0000	0.0000	0.0000	0.0000;
	1968	8964	0.002631	0.011889	0	319	0	0	0	0	1	-360	360	286.1258	1.9461	-284.1003	7.2070	0.0000	0.0000	0.0000	0.0000;
	1968	5776	0.7232	1.944	0	0	0	0	0	0	1	-360	360	-2.5225	-1.8930	2.5902	2.0749	0.0000	0.0000	0.0000	0.0000;
	9192	955	0.156169	0.546756	0	0	0	0	0	0	1	-360	360	1.0875	3.9923	-1.0624	-3.9045	0.0000	0.0000	0.0000	0.0000;
	9192	6826	0.168809	0.580622	0	0	0	0	0	0	1	-360	360	-7.0460	-7.6141	7.2165	8.2006	0.0000	0.0000	0.0000	0.0000;
	9192	8964	0.019222	0.068209	0	0	0	0	0	0	1	-360	360	55.5946	-2.5724	-55.0358	4.5553	0.0000	0.0000	0.0000	0.0000;
	8574	1616	0.00039	0.00386	0	1435	0	0	0	0	1	-360	360	-134.0522	11.2644	134.1209	-10.5842	0.0000	0.0000	0.0000	0.0000;
	8574	1163	0.00096	0.01138	0	1468	0	0	0	0	1	-360	360	-12.5457	-88.2363	12.6200	89.1166	0.0000	0.0000	0.0000	0.0000;
	8574	9064	0.00037	0.00325	0	1435	0	0	0	0	1	-360	360	-136.2592	16.8139	136.3271	-16.2173	0.0000	0.0000	0.0000	0.0000;
	8574	8921	0.00029	0.00339	0	1600	0	0	0	0	1	-360	360	-203.7401	-105.5152	203.8887	107.2530	0.0000	0.0000	0.0000	0.0000;
	3493	2299	0.009458	0.158871	0	0	0	0	0	0	1	-360	360	8.5450	-1.0223	-8.5386	1.1285	0.0000	0.0000	0.0000	0.0000;
	2299	4423	0	0.000222	0	0	0	0	0	0	1	-360	360	-176.0030	-10.3349	176.0030	10.3971	0.0000	0.0000	0.0000	0.0000;
	6826	2299	0.312951	7.130667	0	0	0	0	0	0	1	-360	360	0.0602	0.5076	-0.0595	-0.4918	0.0000	0.0000	0.0000	0.0000;
	7563	2299	0.247649	1.075911	0	0	0	0	0	0	1	-360	360	-2.0417	0.5581	2.0517	-0.5148	0.0000	0.0000	0.0000	0.0000;
	4427	2299	0.06056	0.18612	0	0	0	0	0	0	1	-360	360	-4.2346	-2.2939	4.2474	2.3333	0.0000	0.0000	0.0000	0.0000;
	8335	2299	2.142489	4.347733	0	0	0	0	0	0	1	-360	360	-0.3806	-0.2042	0.3843	0.2117	0.0000	0.0000	0.0000	0.0000;
	5155	2299	0.07132	1.068889	0	0	0	0	0	0	1	-360	360	-0.6588	-1.2645	0.6602	1.2845	0.0000	0.0000	0.0000	0.0000;
	271	2299	0.02268	0.08652	0	0	0	0	0	0	1	-360	360	15.6341	-10.3087	-15.5617	10.5848	0.0000	0.0000	0.0000	0.0000;
	2449	2299	2.007778	4.494222	0	0	0	0	0	0	1	-360	360	0.5705	0.8854	-0.5521	-0.8442	0.0000	0.0000	0.0000	0.0000;
	4665	2299	0.006178	0.028938	0	0	0	0	0	0	1	-360	360	-66.4086	4.9789	66.6568	-3.8165	0.0000	0.0000	0.0000	0.0000;
	4495	2299	0.027711	0.260951	0	0	0	0	0	0	1	-360	360	-4.1427	-1.0994	4.1473	1.1429	0.0000	0.0000	0.0000	0.0000;
	3493	5587	0	0.000222	0	319	0	0	0	0	1	-360	360	-314.8602	-51.0212	314.8602	51.2250	0.0000	0.0382	0.0000	0.0000;
	4586	3493	0.00692	0.337378	0	0	0	0	0	0	1	-360	360	6.5634	2.5081	-6.5604	-2.3601	0.0000	0.0000	0.0000	0.0000;
	228	3493	0.025991	0.10048	0	0	0	0	0	0	1	-360	360	40.2849	2.5299	-39.9109	-1.0843	0.0000	0.0000	0.0000	0.0000;
	6826	3493	0.083711	0.8648	0	0	0	0	0	0	1	-360	360	-0.8921	4.4071	0.9064	-4.2591	0.0000	0.0000	0.0000	0.0000;
	7563	3493	0.447378	1.862089	0	0	0	0	0	0	1	-360	360	-1.8518	0.5642	1.8669	-0.5014	0.0000	0.0000	0.0000	0.0000;
	4427	3493	0.062169	0.153191	0	0	0	0	0	0	1	-360	360	-12.5641	1.3292	12.6547	-1.1061	0.0000	0.0000	0.0000	0.0000;
	8335	3493	2.492533	4.725778	0	0	0	0	0	0	1	-360	360	-0.5631	-0.0397	0.5705	0.0537	0.0000	0.0000	0.0000	0.0000;
	5155	3493	0.020271	0.08244	0	0	0	0	0	0	1	-360	360	-26.0947	-9.2764	26.2385	9.8611	0.0000	0.0000	0.0000	0.0000;
	271	3493	0.11416	1.777556	0	0	0	0	0	0	1	-360	360	0.1094	-0.2652	-0.1093	0.2665	0.0000	0.0000	0.0000	0.0000;
	5776	3493	0.574978	2.992578	0	0	0	0	0	0	1	-360	360	-0.0595	1.1935	0.0665	-1.1573	0.0000	0.0000	0.0000	0.0000;
	2449	3493	1.887067	4.964444	0	0	0	0	0	0	1	-360	360	0.2361	0.9613	-0.2208	-0.9211	0.0000	0.0000	0.0000	0.0000;
	4665	3493	0.250778	0.817422	0	0	0	0	0	0	1	-360	360	-3.7551	0.9760	3.7893	-0.8646	0.0000	0.0000	0.0000	0.0000;
	4495	3493	0.007049	0.029609	0	0	0	0	0	0	1	-360	360	-79.2962	9.0642	79.7038	-7.3520	0.0000	0.0000	0.0000	0.0000;
	5587	4586	0.003049	0.020218	0	0	0	0	0	0	1	-360	360	-108.9201	-24.7129	109.2634	26.9888	0.0000	0.0000	0.0000	0.0000;
	4423	4586	0.002911	0.020262	0	0	0	0	0	0	1	-360	360	-176.0030	-10.0309	176.8182	15.7049	0.0000	0.0000	0.0000	0.0000;
	4929	2870	4e-05	0.00041	0	777	0	0	0	0	1	-360	360	0.0000	-0.6974	-0.0000	0.6974	0.0000	0.0000	0.0000	0.0000;
	4929	659	0.00087	0.01087	0	1303	0	0	0	0	1	-360	360	-188.7732	40.4534	189.0614	-36.8516	0.0000	0.0000	0.0000	0.0000;
	4929	1037	4e-05	0.00046	0	777	0	0	0	0	1	-360	360	0.0000	-0.6187	0.0000	0.6187	0.0000	0.0000	0.0000	0.0000;
	4929	659	0.00095	0.00924	0	1501	0	0	0	0	1	-360	360	-220.4868	52.4846	220.9207	-48.2650	0.0000	0.0000	0.0000	0.0000;
	1815	5210	0.528017	2.636157	0	0	0	0	0	0	1	-360	360	-0.3150	0.7928	0.3184	-0.7760	0.0000	0.0000	0.0000	0.0000;
	1815	1445	0.032031	0.128659	0	0	0	0	0	0	1	-360	360	-0.3162	15.4648	0.3835	-15.1944	0.0000	0.0000	0.0000	0.0000;
	1616	7762	0.00044	0.0032	0	1665	0	0	0	0	1	-360	360	-403.7150	-57.0002	404.4272	62.1792	0.0000	0.0000	0.0000	0.0000;
	1616	2520	0.00046	0.00489	0	1731	0	0	0	0	1	-360	360	269.5941	82.4265	-269.2382	-78.6428	0.0000	0.0000	0.0000	0.0000;
	9064	7762	0.0003	0.00352	0	1600	0	0	0	0	1	-360	360	-386.7788	-72.8421	387.2314	78.1521	0.0000	0.0000	0.0000	0.0000;
	9064	89	0.00051	0.00454	0	1665	0	0	0	0	1	-360	360	250.4517	104.7295	-250.0857	-101.4713	0.0000	0.0000	0.0000	0.0000;
	1317	659	0.00068	0.00746	0	1633	0	0	0	0	1	-360	360	-202.3403	-124.4026	202.6896	128.2352	0.0000	0.0000	0.0000	0.0000;
	1317	8605	0.00093	0.01022	0	1764	0	0	0	0	1	-360	360	53.0403	149.2110	-52.8279	-146.8771	0.0000	0.0000	0.0000	0.0000;
	8605	1367	4e-05	0.0004	0	1501	0	0	0	0	1	-360	360	288.0274	81.4103	-287.9938	-81.0745	0.0000	0.0000	0.0000	0.0000;
	8605	8921	0.00078	0.00698	0	1764	0	0	0	0	1	-360	360	364.7996	190.9879	-363.5600	-179.8950	0.0000	0.0000	0.0000	0.0000;
	1163	1676	4e-05	0.00043	0	1600	0	0	0	0	1	-360	360	107.9994	65.4810	-107.9933	-65.4155	0.0000	0.0000	0.0000	0.0000;
	1163	7051	0.00025	0.00309	0	1698	0	0	0	0	1	-360	360	-120.6194	-137.7979	120.6995	138.7874	0.0000	0.0000	0.0000	0.0000;
	913	7762	0.00047	0.00538	0	1633	0	0	0	0	1	-360	360	823.9471	262.5671	-820.6575	-224.9117	0.0000	0.0000	0.0000	0.0000;
	2107	7762	0.00046	0.00548	0	1764	0	0	0	0	1	-360	360	961.8412	361.0723	-957.3453	-307.5134	0.0000	0.0000	0.0000	0.0000;
	2107	5996	0.00016	0.00173	0	1863	0	0	0	0	1	-360	360	-288.1538	55.3081	288.2814	-53.9290	0.0000	0.0000	0.0000	0.0000;
	2107	6293	0.00166	0.01471	0	1764	0	0	0	0	1	-360	360	537.5474	245.5156	-532.1794	-197.9472	0.0000	0.0000	0.0000	0.0000;
	913	7762	0.00051	0.00512	0	1797	0	0	0	0	1	-360	360	868.0884	265.0666	-864.1561	-225.5888	0.0000	0.0000	0.0000	0.0000;
	6704	8921	0.00021	0.00248	0	1534	0	0	0	0	1	-360	360	-159.6033	-88.7874	159.6713	89.5904	0.0000	0.0000	0.0000	0.0000;
	228	4586	0.004391	0.021689	0	306	0	0	0	0	1	-360	360	82.7304	0.3997	-82.4650	0.9112	0.0000	0.0000	0.0000	0.0000;
	2441	6293	0.00024	0.00289	0	1665	0	0	0	0	1	-360	360	-231.2262	-86.4648	231.3738	88.2424	0.0000	0.0000	0.0000	0.0000;
	955	3506	0	0.000222	0	358	0	0	0	0	1	-360	360	-277.0256	-104.5534	277.0256	104.7444	0.0000	0.0000	0.0000	0.0000;
	955	8964	0.01788	0.100471	0	0	0	0	0	0	1	-360	360	34.0704	-20.2585	-33.7946	21.8078	0.0000	0.0000	0.0000	0.0000;
	3506	2908	0.006458	0.039982	0	0	0	0	0	0	1	-360	360	-46.2727	-43.2416	46.5268	44.8147	0.0000	0.0000	0.0000	0.0000;
	228	6826	0.106151	0.993333	0	0	0	0	0	0	1	-360	360	4.9945	-2.8517	-4.9635	3.1418	0.0000	0.0000	0.0000	0.0000;
	228	5776	0.699778	3.232311	0	0	0	0	0	0	1	-360	360	1.3351	-0.9474	-1.3185	1.0239	0.0000	0.0000	0.0000	0.0000;
	8964	6826	0.257058	0.43592	0	0	0	0	0	0	1	-360	360	-17.8511	-3.7176	18.6657	5.0992	0.0000	0.0000	0.0000	0.0000;
	5776	6826	0.002769	0.011449	0	0	0	0	0	0	1	-360	360	19.5769	-21.3524	-19.5572	21.4340	0.0000	0.0000	0.0000	0.0000;
	659	8329	0.00034	0.00305	0	1600	0	0	0	0	1	-360	360	321.5971	163.2131	-321.2022	-159.6704	0.0000	0.0000	0.0000	0.0000;
	659	7051	0.00123	0.01255	0	1863	0	0	0	0	1	-360	360	386.1051	225.4015	-383.9094	-202.9988	0.0000	0.0000	0.0000	0.0000;
	659	9239	6e-05	0.00065	0	1435	0	0	0	0	1	-360	360	-222.7899	-273.4602	222.8566	274.1824	0.0000	0.0000	0.0000	0.0000;
	659	7960	6e-05	0.00063	0	1534	0	0	0	0	1	-360	360	-222.8113	-273.4822	222.8779	274.1824	0.0000	0.0000	0.0000	0.0000;
	659	6233	6e-05	0.00055	0	1764	0	0	0	0	1	-360	360	-185.9694	286.8878	186.0321	-286.3136	0.0000	0.0000	0.0000	0.0000;
	659	5416	0.00079	0.00968	0	1369	0	0	0	0	1	-360	360	-973.6266	199.3509	980.5949	-113.9667	0.0000	0.0000	0.0000	0.0000;
	659	6798	7e-05	0.00079	0	0	0	0	0	0	1	-360	360	-333.2876	-354.2125	333.4355	355.8814	0.0000	0.0000	0.0000	0.0000;
	792	3279	0	0.000222	0	397	0	0	0	0	1	-360	360	-254.6134	-32.8748	254.6134	33.0080	0.0000	0.0000	0.0000	0.0000;
	7563	792	2.064178	7.545333	0	0	0	0	0	0	1	-360	360	-0.6820	0.2907	0.6922	-0.2534	0.0000	0.0000	0.0000	0.0000;
	7279	792	0.153711	0.482489	0	0	0	0	0	0	1	-360	360	-0.3863	2.5908	0.3957	-2.5613	0.0000	0.0000	0.0000	0.0000;
	8335	792	0.015809	0.12368	0	0	0	0	0	0	1	-360	360	-37.5050	-3.7512	37.7138	5.3853	0.0000	0.0000	0.0000	0.0000;
	2449	792	0.057978	0.363422	0	0	0	0	0	0	1	-360	360	-5.0313	16.6140	5.1757	-15.7089	0.0000	0.0000	0.0000	0.0000;
	4665	792	0.6932	2.196889	0	0	0	0	0	0	1	-360	360	-2.1631	0.8696	2.1972	-0.7614	0.0000	0.0000	0.0000	0.0000;
	4495	792	0.560356	2.395867	0	0	0	0	0	0	1	-360	360	-1.7400	0.5101	1.7567	-0.4386	0.0000	0.0000	0.0000	0.0000;
	5416	2267	0.00024	0.00213	0	777	0	0	0	0	1	-360	360	302.5399	-84.9266	-302.3254	86.8303	0.0000	0.0000	0.0000	0.0000;
	5416	7637	0.00093	0.00884	0	1303	0	0	0	0	1	-360	360	-1283.1349	226.6582	1297.4260	-90.8152	2.1003	0.0000	0.0000	0.0000;
	8964	2168	0	0.000222	0	332	0	0	0	0	1	-360	360	-257.7201	-61.5329	257.7201	61.6814	0.0000	0.0000	0.0000	0.0000;
	3659	5996	0.00018	0.00204	0	1797	0	0	0	0	1	-360	360	314.2634	197.1516	-314.0357	-194.5714	0.0000	0.0000	0.0000	0.0000;
	5762	5996	0.00018	0.00208	0	777	0	0	0	0	1	-360	360	-0.0000	2.4064	0.0000	-2.4063	0.0000	0.0000	0.0000	0.0000;
	3242	5097	0	0.000222	0	0	0	0	0	0	1	-360	360	-8.8524	28.9828	8.8524	-28.9810	0.0000	0.0000	0.0000	0.0000;
	7563	3242	0.02068	0.093391	0	0	0	0	0	0	1	-360	360	-58.0900	4.6530	58.7221	-1.7985	0.0000	0.0000	0.0000	0.0000;
	4427	3242	0.777778	7.408	0	0	0	0	0	0	1	-360	360	-0.5297	-0.1586	0.5318	0.1793	0.0000	0.0000	0.0000	0.0000;
	3242	7279	0.00884	0.07292	0	0	0	0	0	0	1	-360	360	4.4566	4.3845	-4.4536	-4.3592	0.0000	0.0000	0.0000	0.0000;
	271	3242	0.131671	8.295556	0	0	0	0	0	0	1	-360	360	-0.1896	-0.1785	0.1897	0.1836	0.0000	0.0000	0.0000	0.0000;
	3242	1611	0.082462	0.568222	0	0	0	0	0	0	1	-360	360	0.5486	1.5549	-0.5467	-1.5412	0.0000	0.0000	0.0000	0.0000;
	5097	1611	0.0042	0.02624	0	0	0	0	0	0	1	-360	360	12.3769	33.1677	-12.3303	-32.8764	0.0000	0.0000	0.0000	0.0000;
	8181	8179	0.00031	0.00317	0	1271	0	0	0	0	1	-360	360	122.6054	-19.9413	-122.5586	20.4198	0.0000	0.0000	0.0000	0.0000;
	8181	7762	0.00043	0.00498	0	1501	0	0	0	0	1	-360	360	-361.2681	-88.0043	361.8496	94.7394	0.0000	0.0000	0.0000	0.0000;
	9025	7762	0.00042	0.00508	0	1731	0	0	0	0	1	-360	360	-270.9285	-70.8149	271.2499	74.7019	0.0000	0.0000	0.0000	0.0000;
	7563	4427	0.110671	0.773067	0	0	0	0	0	0	1	-360	360	-1.9777	1.2830	1.9833	-1.2444	0.0000	0.0000	0.0000	0.0000;
	7563	7279	0.00912	0.037609	0	0	0	0	0	0	1	-360	360	-133.6805	21.1173	135.1839	-14.9177	0.0000	0.0000	0.0000	0.0000;
	7563	8335	0.098049	0.598711	0	0	0	0	0	0	1	-360	360	-1.2742	3.2386	1.2849	-3.1733	0.0000	0.0000	0.0000	0.0000;
	7563	5155	0.019031	1.160356	0	0	0	0	0	0	1	-360	360	-1.4355	1.3185	1.4362	-1.2789	0.0000	0.0000	0.0000	0.0000;
	7563	271	0.024071	0.915733	0	0	0	0	0	0	1	-360	360	-4.2473	0.8666	4.2514	-0.7117	0.0000	0.0000	0.0000	0.0000;
	2449	7563	1.484267	4.479111	0	0	0	0	0	0	1	-360	360	0.9883	0.8096	-0.9682	-0.7492	0.0000	0.0000	0.0000	0.0000;
	4665	7563	0.011578	0.063271	0	0	0	0	0	0	1	-360	360	4.7523	-6.4468	-4.7456	6.4835	0.0000	0.0000	0.0000	0.0000;
	4495	7563	0.654889	1.839111	0	0	0	0	0	0	1	-360	360	0.5347	-0.4456	-0.5319	0.4537	0.0000	0.0000	0.0000	0.0000;
	7563	1611	0.022049	0.10076	0	0	0	0	0	0	1	-360	360	-49.8410	12.3402	50.3642	-9.9494	0.0000	0.0000	0.0000	0.0000;
	4427	7279	0.459867	2.604711	0	0	0	0	0	0	1	-360	360	-1.3872	-0.2323	1.3955	0.2793	0.0000	0.0000	0.0000	0.0000;
	4427	8335	2.320222	6.088	0	0	0	0	0	0	1	-360	360	0.1389	0.1184	-0.1381	-0.1165	0.0000	0.0000	0.0000	0.0000;
	4427	5155	0.006369	0.048089	0	0	0	0	0	0	1	-360	360	1.3327	14.8849	-1.3197	-14.7869	0.0000	0.0000	0.0000	0.0000;
	4427	271	0.006631	0.0432	0	0	0	0	0	0	1	-360	360	-50.6612	5.1200	50.8180	-4.0980	0.0000	0.0000	0.0000	0.0000;
	2449	4427	2.567244	6.767111	0	0	0	0	0	0	1	-360	360	0.4753	0.6843	-0.4605	-0.6455	0.0000	0.0000	0.0000	0.0000;
	4665	4427	0.309889	1.214178	0	0	0	0	0	0	1	-360	360	-0.9184	0.5737	0.9217	-0.5608	0.0000	0.0000	0.0000	0.0000;
	4495	4427	0.009191	0.043289	0	0	0	0	0	0	1	-360	360	-7.4611	8.0775	7.4711	-8.0300	0.0000	0.0000	0.0000	0.0000;
	4427	1611	0.691022	5.239556	0	0	0	0	0	0	1	-360	360	-0.6900	-0.0385	0.6930	0.0614	0.0000	0.0000	0.0000	0.0000;
	5210	1445	0.002669	0.01718	0	0	0	0	0	0	1	-360	360	40.3613	-2.6139	-40.3217	2.8694	0.0000	0.0000	0.0000	0.0000;
	8179	5509	0.00074	0.00694	0	1271	0	0	0	0	1	-360	360	220.9780	-12.3737	-220.6236	15.6974	0.0000	0.0000	0.0000	0.0000;
	8179	7762	0.00068	0.008	0	1567	0	0	0	0	1	-360	360	-273.8290	-46.7511	274.3420	52.7869	0.0000	0.0000	0.0000	0.0000;
	7279	4014	0	0.000222	0	0	0	0	0	0	1	-360	360	0.0000	0.0000	0.0000	0.0000	0.0000	0.0000	0.0000	0.0000;
	8335	7279	0.00524	0.030631	0	0	0	0	0	0	1	-360	360	-140.6418	-49.1575	141.7235	55.4807	0.0000	0.0000	0.0000	0.0000;
	5155	7279	0.33932	3.814667	0	0	0	0	0	0	1	-360	360	-0.9431	-0.4287	0.9465	0.4665	0.0000	0.0000	0.0000	0.0000;
	271	7279	0.22696	2.614933	0	0	0	0	0	0	1	-360	360	-0.5173	-0.3970	0.5181	0.4071	0.0000	0.0000	0.0000	0.0000;
	2449	7279	0.190671	0.719378	0	0	0	0	0	0	1	-360	360	-1.3195	6.6030	1.3909	-6.3335	0.0000	0.0000	0.0000	0.0000;
	4665	7279	1.050222	2.105556	0	0	0	0	0	0	1	-360	360	-1.9863	0.6136	2.0274	-0.5312	0.0000	0.0000	0.0000	0.0000;
	4495	7279	1.431644	4.294578	0	0	0	0	0	0	1	-360	360	-0.8874	0.0741	0.8977	-0.0432	0.0000	0.0000	0.0000	0.0000;
	1611	7279	0.022618	0.161089	0	0	0	0	0	0	1	-360	360	0.1313	-3.5268	-0.1288	3.5449	0.0000	0.0000	0.0000	0.0000;
	5509	1579	0.00088	0.00895	0	1830	0	0	0	0	1	-360	360	-178.9391	-72.0200	179.2596	75.2799	0.0000	0.0000	0.0000	0.0000;
	8335	1531	0	0.000222	0	319	0	0	0	0	1	-360	360	-186.5946	-3.7813	186.5946	3.8532	0.0000	0.0000	0.0000	0.0000;
	5155	8335	1.827778	7.768	0	0	0	0	0	0	1	-360	360	0.0820	0.0215	-0.0818	-0.0209	0.0000	0.0000	0.0000	0.0000;
	2449	8335	0.020849	0.153382	0	0	0	0	0	0	1	-360	360	19.1430	42.7371	-18.7651	-39.9573	0.0000	0.0000	0.0000	0.0000;
	4665	8335	0.156231	0.656267	0	0	0	0	0	0	1	-360	360	-0.5223	2.3364	0.5304	-2.3023	0.0000	0.0000	0.0000	0.0000;
	4495	8335	0.176498	0.891556	0	0	0	0	0	0	1	-360	360	0.4759	1.3912	-0.4725	-1.3737	0.0000	0.0000	0.0000	0.0000;
	7762	2268	0.00067	0.00777	0	1633	0	0	0	0	1	-360	360	405.1979	206.0032	-403.8597	-190.4841	0.0000	0.0000	0.0000	0.0000;
	5155	271	0.004578	0.061889	0	0	0	0	0	0	1	-360	360	-35.9772	-10.8162	36.0370	11.6239	0.0000	0.0000	0.0000	0.0000;
	5155	2908	0.01348	0.05932	0	0	0	0	0	0	1	-360	360	5.6456	16.4574	-5.6079	-16.2914	0.0000	0.0000	0.0000	0.0000;
	4665	5155	0.066391	2.802622	0	0	0	0	0	0	1	-360	360	-0.4594	0.4174	0.4596	-0.4076	0.0000	0.0000	0.0000	0.0000;
	4495	5155	0.194258	2.220444	0	0	0	0	0	0	1	-360	360	-0.1507	0.4669	0.1512	-0.4620	0.0000	0.0000	0.0000	0.0000;
	5155	1611	0.008151	0.072822	0	0	0	0	0	0	1	-360	360	-50.0442	-13.5502	50.2468	15.3601	0.0000	0.0000	0.0000	0.0000;
	271	2908	0.016502	0.055382	0	0	0	0	0	0	1	-360	360	47.2643	21.0747	-46.8621	-19.7248	0.0000	0.0000	0.0000	0.0000;
	4665	271	0.0806	4.633778	0	0	0	0	0	0	1	-360	360	-0.7592	0.0829	0.7596	-0.0584	0.0000	0.0000	0.0000	0.0000;
	4495	271	0.831556	3.729644	0	0	0	0	0	0	1	-360	360	-0.6608	0.1940	0.6644	-0.1780	0.0000	0.0000	0.0000	0.0000;
	271	1611	0.007951	0.074151	0	0	0	0	0	0	1	-360	360	-18.9254	-5.9569	18.9539	6.2226	0.0000	0.0000	0.0000	0.0000;
	1579	5848	0.0004	0.00362	0	1633	0	0	0	0	1	-360	360	-179.2596	-58.0935	179.3964	59.3320	0.0000	0.0000	0.0000	0.0000;
	7051	8847	0.00015	0.00177	0	1600	0	0	0	0	1	-360	360	263.2099	86.5988	-263.1009	-85.3125	0.0000	0.0000	0.0000	0.0000;
	5776	8229	0	0.000222	0	0	0	0	0	0	1	-360	360	0.0000	0.0000	0.0000	0.0000	0.0000	0.0000	0.0000	0.0000;
	317	6233	2e-05	0.00022	0	1698	0	0	0	0	1	-360	360	-345.7852	-96.0978	345.8082	96.3517	0.0000	0.0000	0.0000	0.0000;
	4665	2449	0.02864	0.172902	0	0	0	0	0	0	1	-360	360	-20.6852	-26.3095	20.9757	28.0636	0.0000	0.0000	0.0000	0.0000;
	2449	4495	0.017591	0.1404	0	0	0	0	0	0	1	-360	360	18.0745	37.3603	-17.8241	-35.3617	0.0000	0.0000	0.0000	0.0000;
	4665	4495	0.00752	0.031711	0	0	0	0	0	0	1	-360	360	-25.8937	10.1569	25.9464	-9.9347	0.0000	0.0000	0.0000	0.0000;
	1611	8420	0	0.000222	0	566	0	0	0	0	1	-360	360	-381.6122	-139.6280	381.6122	139.9580	0.0000	0.0000	0.0000	0.0000;
	9024	6542	0.000742	0.067219	0	0	0	0	0.994359	0	1	-360	360	114.9137	-8.1168	-114.8280	15.8720	0.0000	0.0000	0.0000	0.0000;
	9024	6542	0.000793	0.06388	0	0	0	0	0.998418	0	1	-360	360	120.3243	-15.9615	-120.2219	24.2101	0.0000	0.0000	0.0000	0.0000;
	6069	9192	0.000609	0.046809	0	711	0	0	0.933053	0	1	-360	360	196.3411	53.5065	-196.1139	-36.0391	0.0000	0.0000	0.0000	0.0000;
	6069	1968	0.00059	0.04521	0	711	0	0	0.91223	0	1	-360	360	218.7532	117.0443	-218.4404	-93.0759	0.0000	0.0000	0.0000	0.0000;
	7829	1968	0.519194	5.108058	0	0	0	0	0	0	1	-360	360	1.8097	0.7346	-1.7924	-0.5649	0.0000	0.0000	0.0000	0.0000;
	8574	2299	0.000559	0.039982	0	0	0	0	0.919523	0	1	-360	360	279.9884	143.4657	-279.5328	-110.8837	0.0000	0.0000	0.0000	0.0000;
	8574	5587	0.000537	0.045312	0	0	0	0	0.948262	0	1	-360	360	206.1489	43.7678	-205.9401	-26.1465	0.0000	0.0000	0.0000	0.0000;
	4929	1815	0.000889	0.061549	0	0	0	0	0.996867	0	1	-360	360	135.7999	-2.0082	-135.6550	12.0380	0.0000	0.0000	0.0000	0.0000;
	1815	792	1.467822	7.764888	0	0	0	0	0	0	1	-360	360	0.3026	0.2033	-0.3009	-0.1942	0.0000	0.0000	0.0000	0.0000;
	6704	4586	0.000586	0.049031	0	678	0	0	0.923407	0	1	-360	360	159.3858	89.4806	-159.2238	-75.9222	0.0000	0.0000	0.0000	0.0000;
	2441	3506	0.000417	0.047801	0	678	0	0	0.952413	0	1	-360	360	230.9859	87.5979	-230.7529	-60.8912	0.0000	0.0000	0.0000	0.0000;
	1367	6826	0.000755	0.05143	0	0	0	0	0.924009	0	1	-360	360	287.8065	79.4654	-287.2674	-42.7445	0.0000	0.0000	0.0000	0.0000;
	1676	228	0.000733	0.052399	0	678	0	0	0.934986	0	1	-360	360	107.8137	63.8839	-107.7176	-57.0110	0.0000	0.0000	0.0000	0.0000;
	7829	6826	0.00078	0.064311	0	0	0	0	0	0	1	-360	360	92.2008	-24.1105	-92.1391	29.1961	0.0000	0.0000	0.0000	0.0000;
	659	3279	0.00089	0.048632	0	0	0	0	0.987002	0	1	-360	360	255.1474	62.1880	-254.6134	-33.0080	0.0000	0.0000	0.0000	0.0000;
	5210	792	0.00855	0.08972	0	0	0	0	0	0	1	-360	360	35.9667	-1.9397	-35.8659	2.9977	0.0000	0.0000	0.0000	0.0000;
	1445	792	0.00223	0.04836	0	0	0	0	0	0	1	-360	360	52.5070	-1.2956	-52.4511	2.5096	0.0000	0.0000	0.0000	0.0000;
	7180	2168	0.000581	0.043111	0	678	0	0	0.924038	0	1	-360	360	266.7329	90.8297	-266.3201	-60.2014	0.0000	0.0000	0.0000	0.0000;
	6833	8964	0.000579	0.043272	0	711	0	0	0.901005	0	1	-360	360	277.9075	153.6102	-277.4082	-116.2896	0.0000	0.0000	0.0000	0.0000;
	3659	3242	0.000586	0.049031	0	711	0	0	0.923407	0	1	-360	360	352.4080	175.3117	-351.6965	-115.7865	0.0000	0.0000	0.0000	0.0000;
	8181	4427	0.000559	0.049192	0	0	0	0	0.924009	0	1	-360	360	238.4471	114.7138	-238.1203	-85.9484	0.0000	0.0000	0.0000	0.0000;
	9025	7563	0.000573	0.051129	0	678	0	0	0.934986	0	1	-360	360	270.7175	73.9681	-270.3326	-39.6182	0.0000	0.0000	0.0000	0.0000;
	2267	5210	0.000417	0.039229	0	744	0	0	0.967059	0	1	-360	360	468.9956	141.3296	-468.1504	-61.8183	0.0000	0.0000	0.0000	0.0000;
	5210	7279	0.230542	1.197733	0	0	0	0	0	0	1	-360	360	2.9513	-1.4235	-2.9288	1.5404	0.0000	0.0000	0.0000	0.0000;
	5210	8335	0.02284	0.2644	0	0	0	0	0	0	1	-360	360	29.7305	3.2238	-29.5449	-1.0745	0.0000	0.0000	0.0000	0.0000;
	5210	2449	0.08537	0.736798	0	0	0	0	0	0	1	-360	360	7.4917	-7.9186	-7.3995	8.7144	0.0000	0.0000	0.0000	0.0000;
	5210	4665	1.402768	3.640289	0	0	0	0	0	0	1	-360	360	2.0712	-0.7592	-2.0091	0.9202	0.0000	0.0000	0.0000	0.0000;
	5210	4495	1.050227	4.450207	0	0	0	0	0	0	1	-360	360	1.6493	-0.3446	-1.6222	0.4594	0.0000	0.0000	0.0000	0.0000;
	8179	7279	0.000716	0.04371	0	0	0	0	0.934986	0	1	-360	360	175.2107	58.2887	-175.0021	-45.5506	0.0000	0.0000	0.0000	0.0000;
	1445	7279	0.518622	2.317689	0	0	0	0	0	0	1	-360	360	1.1941	-0.7448	-1.1848	0.7866	0.0000	0.0000	0.0000	0.0000;
	5509	8335	0.00059	0.045662	0	0	0	0	0.955958	0	1	-360	360	212.4519	53.6301	-212.1985	-34.0170	0.0000	0.0000	0.0000	0.0000;
	5509	1531	0.000603	0.050959	0	0	0	0	0.968125	0	1	-360	360	186.7899	20.3608	-186.5946	-3.8532	0.0000	0.0000	0.0000	0.0000;
	1445	8335	0.047769	0.554178	0	0	0	0	0	0	1	-360	360	12.9227	1.4532	-12.8492	-0.6004	0.0000	0.0000	0.0000	0.0000;
	7762	5155	0.000591	0.045153	0	0	0	0	0.918868	0	1	-360	360	304.6373	178.0964	-304.0367	-132.2075	0.0000	0.0000	0.0000	0.0000;
	7762	271	0.0006	0.047778	0	711	0	0	0.948976	0	1	-360	360	232.9089	61.4804	-232.6058	-37.3462	0.0000	0.0000	0.0000	0.0000;
	7829	5776	0.02436	0.270151	0	0	0	0	0	0	1	-360	360	20.3495	-6.6641	-20.2522	7.7426	0.0000	0.0000	0.0000	0.0000;
	8329	1445	0.000802	0.05727	0	0	0	0	0.967021	0	1	-360	360	158.7763	80.1600	-158.5621	-64.8651	0.0000	0.0000	0.0000	0.0000;
	8329	1445	0.000823	0.056059	0	0	0	0	0.967021	0	1	-360	360	162.2601	81.7811	-162.0307	-66.1560	0.0000	0.0000	0.0000	0.0000;
	1445	2449	0.188099	1.291901	0	0	0	0	0	0	1	-360	360	3.5540	-4.6119	-3.4960	5.0104	0.0000	0.0000	0.0000	0.0000;
	1445	4665	2.466323	7.26343	0	0	0	0	0	0	1	-360	360	0.9764	-0.3276	-0.9526	0.3977	0.0000	0.0000	0.0000	0.0000;
	2268	2908	0.000523	0.050352	0	744	0	0	0.934622	0	1	-360	360	198.0735	90.0183	-197.8568	-69.1622	0.0000	0.0000	0.0000	0.0000;
	8847	5776	0.000682	0.049638	0	0	0	0	0.913034	0	1	-360	360	223.5548	94.3254	-223.2368	-71.1825	0.0000	0.0000	0.0000	0.0000;
	8847	8103	0.00099	0.04736	0	0	0	0	1.012146	0	1	-360	360	39.3559	-9.9406	-39.3400	10.7000	0.0000	0.0000	0.0000	0.0000;
	317	2449	0.000616	0.048759	0	678	0	0	0.933053	0	1	-360	360	345.7339	94.0640	-345.1171	-45.2434	0.0000	0.0000	0.0000	0.0000;
	7637	8581	9e-05	0.015499	0	1698	0	0	0	-0.428189	1	-360	360	-1297.7453	97.6181	1299.1300	140.8500	0.0000	0.0000	0.0000	0.0000;
	5848	7526	9e-05	0.00963	0	1698	0	0	0	0.178581	1	-360	360	-179.6991	-59.7703	179.7300	63.0800	0.0000	0.0000	0.0000	0.0000;
	89	4495	0.000664	0.045609	0	0	0	0	0.924009	0	1	-360	360	249.8836	106.0696	-249.4720	-77.7961	0.0000	0.0000	0.0000	0.0000;
	2520	4665	0.000649	0.044862	0	711	0	0	0.933053	0	1	-360	360	269.1798	82.5147	-268.7393	-52.0671	0.0000	0.0000	0.0000	0.0000;
	5996	8420	0.00067	0.04326	0	744	0	0	0.923407	0	1	-360	360	382.6082	204.2669	-381.6122	-139.9580	0.0000	0.0000	0.0000	0.0000;
	2154	5996	9e-05	0.009901	0	1698	0	0	0	-0.153178	1	-360	360	357.1395	-39.0461	-357.0310	50.9814	0.0000	0.0000	0.0000	0.0000;
];

%%-----  OPF Data  -----%%
%% generator cost data
%	1	startup	shutdown	n	x1	y1	...	xn	yn
%	2	startup	shutdown	n	c(n-1)	...	c0
mpc.gencost = [
	2	0	0	3	0	1	0;
	2	0	0	3	0	1	0;
	2	0	0	3	0	1	0;
	2	0	0	3	0	1	0;
	2	0	0	3	0	1	0;
	2	0	0	3	0	1	0;
	2	0	0	3	0	1	0;
	2	0	0	3	0	1	0;
	2	0	0	3	0	1	0;
	2	0	0	3	0	1	0;
	2	0	0	3	0	1	0;
	2	0	0	3	0	1	0;
];
